           9
  Built with Packmol                                             
  Al           6.879518        4.275655        3.521327
  Cl           4.692963        3.975835        3.475576
  Cl           7.511653        5.323039        1.680169
  Cl           7.893212        2.315030        3.643057
  Cl           7.412741        5.495792        5.285724
  Al           2.498784        3.734013        3.425943
  Cl           1.602579        4.854848        5.107045
  Cl           1.986107        1.591454        3.607321
  Cl           1.720327        4.522478        1.513266
