          5
  Built with Packmol                                             
  Al          17.543668       10.787064       14.788218
  Cl          15.384748       11.258986       14.826473
  Cl          18.489490       11.510313       16.651934
  Cl          17.817316        8.599282       14.625308
  Cl          18.485018       11.779369       13.051858
