          19
  Built with Packmol                                             
  C            5.796874        3.695973        4.041427
  N            5.933606        4.896922        3.448020
  C            4.846129        5.614804        3.785908
  C            4.047673        4.829783        4.593366
  N            4.651256        3.628889        4.748293
  C            7.037971        5.337964        2.605414
  H            7.794681        4.531221        2.500678
  H            7.523068        6.227165        3.060016
  H            6.655979        5.603468        1.597413
  C            4.209767        2.455110        5.510260
  C            2.868012        2.661948        6.211396
  H            4.977209        2.213902        6.277134
  H            4.117581        1.590225        4.818286
  H            2.935394        3.502109        6.934634
  H            2.595685        1.739415        6.766424
  H            2.071928        2.873403        5.466398
  H            4.647689        6.631056        3.469964
  H            3.101577        5.123556        5.028237
  H            6.513895        2.888081        3.961512
